LTspice 24.1.10 for Windows
Circuit: C:\Users\Sammit\Downloads\Design-of-Two-Stage-Operational-Amplifier-main\Draft1_234.net
Start Time: Tue Oct 28 16:57:53 2025
C:\Users\Sammit\Downloads\Design-of-Two-Stage-Operational-Amplifier-main\Draft1_234.net(3): This model has multiple definitions. (Note: If you wish to allow this, add ".OPTIONS ALLOW_AMBIGUOUS_MODELS" to your netlist.)
M1 V1 N003 N005 0 NMOS l=0.5u w=30u
                  ^^^^
C:\Users\Sammit\Downloads\Design-of-Two-Stage-Operational-Amplifier-main\Draft1_234.net(4): This model has multiple definitions. (Note: If you wish to allow this, add ".OPTIONS ALLOW_AMBIGUOUS_MODELS" to your netlist.)
M2 V2 N004 N005 0 NMOS l=0.5u w=30u
                  ^^^^
C:\Users\Sammit\Downloads\Design-of-Two-Stage-Operational-Amplifier-main\Draft1_234.net(5): This model has multiple definitions. (Note: If you wish to allow this, add ".OPTIONS ALLOW_AMBIGUOUS_MODELS" to your netlist.)
M3 N001 V1 V1 N001 PMOS l=2u w=4u
                   ^^^^
C:\Users\Sammit\Downloads\Design-of-Two-Stage-Operational-Amplifier-main\Draft1_234.net(6): This model has multiple definitions. (Note: If you wish to allow this, add ".OPTIONS ALLOW_AMBIGUOUS_MODELS" to your netlist.)
M4 N001 V1 V2 N001 PMOS l=2u w=4u
                   ^^^^
C:\Users\Sammit\Downloads\Design-of-Two-Stage-Operational-Amplifier-main\Draft1_234.net(7): This model has multiple definitions. (Note: If you wish to allow this, add ".OPTIONS ALLOW_AMBIGUOUS_MODELS" to your netlist.)
M5 N005 N006 0 0 NMOS l=0.5u w=16u
                 ^^^^
C:\Users\Sammit\Downloads\Design-of-Two-Stage-Operational-Amplifier-main\Draft1_234.net(8): This model has multiple definitions. (Note: If you wish to allow this, add ".OPTIONS ALLOW_AMBIGUOUS_MODELS" to your netlist.)
M8 N006 N006 0 0 NMOS l=2u w=8u
                 ^^^^
C:\Users\Sammit\Downloads\Design-of-Two-Stage-Operational-Amplifier-main\Draft1_234.net(12): This model has multiple definitions. (Note: If you wish to allow this, add ".OPTIONS ALLOW_AMBIGUOUS_MODELS" to your netlist.)
M7 VOUT N006 0 0 NMOS l=1u w=32u
                 ^^^^
C:\Users\Sammit\Downloads\Design-of-Two-Stage-Operational-Amplifier-main\Draft1_234.net(14): This model has multiple definitions. (Note: If you wish to allow this, add ".OPTIONS ALLOW_AMBIGUOUS_MODELS" to your netlist.)
M6 N001 V2 VOUT N001 PMOS l=0.5u w=30u
                     ^^^^
